-----BEGIN PRIVATE KEY-----
MIIEwAIBADANBgkqhkiG9w0BAQEFAASCBKowggSmAgEAAoIBAQDqmCbSpB/M7doE
78KnANbYujjn3zqtV/MZtR/x64IomCjkAUA5Dgto3gS0cz02zxW/1MspltnIEYtD
gcTM2cmUz5CDvbtOR84dO+42Rjd4JFRuqzD07C2qiA5vpS0spTiSBIPWPMj5O+il
UvaEviRgKHPtfdVpsQL6sThMfKXjbfiI8E8fEzdM4IiNn2AZJKaeTAVzWLPJEgCD
oikk7WJJAj3ZItIXJYdA7vXhGe+gcPweeK2Gv+gT70N8prFno7X0Y0K47uZRQ3tC
mZ5AEeqomD467UR7oodpAo50Y3dZ1mXZT85T8700M2uOm3PgkxRrKPBiEccC3vp2
GVomahK3AgMBAAECggEBAJrH2JWSBAlJxVcMefmF7DsCYxlZh3VnWdXUU0dig3YV
LqWAzcbXJWADXEdS4UiQSWFQHNtL1FTUfnYD4Lzn1MCCUm8Zd8OmTK+tIvZcTazP
C4YZHSv7yAWDz0KKUMvsFu8AW5u2b0NB67Voj431hjqLdjFznKMnTzfoRaTxeOIc
IQLnhkb2JKbMVHOL6JdLtTmb1pHVMniVggTSuZa7QkCg8p6+m6+8RjuxJGlER5+d
1xM0QTTiCpRBW/hvs6RD//FYjj+Fwc0SLKhQPOF8l5G+u3meGmq7IH3ZiW834Smb
Y4fTFQxH/hvUITa1YZ/RlbnSUlbxJL2bGfH8z69fXkECgYEA/xZheME3G8Uk71vt
DO1Rqf9/2GMTNxCDITr2Oky1U1FLxF1FMQiNh3HeQE7FQMurj632xGV2OBBTo7vK
MT3DnwPd68s1nBOo+6sCMIyrSz+ZAsG+9HvbMDIV8FQ7PhC3m8vjQQA3NIhizqU0
Ie0AUV6w772uFjl+bpp/IGx0sGsCgYEA628ApR4VEIM6OrRe2IcpuuVEqvg8Xi9A
U/lPQH2hlCGED3xtRLU4DX9C6f0hqsg8H9iwBEM6cI6Yu8guUhpLfDfxMFOsfndE
zrjPzskt7BoBMNCCjGH6VQew2V95czPTvCfokX+1FWm6v5zHFlZayvAxQ5tShe4V
tu2z4vqdieUCgYEA++NSztYkn+R1y3J/yzMRYAfva3KyB77jbc32VK1opGRzp+ze
JUQn1Waoq+HcwFYeDFwhf+Ac89GTdew7BZLS99PusSdRwdRcGl/MYrqVb1HWuzUs
ZelkENx0c4QJmAkT9eFIf+hBmztOLnZN225X0QHrQGGSZVnSsk8XV6IhPA8CgYEA
qb8649Iwtdsn3LO3vr6VY99yByM7w1ymMOWMMp9iJH+Vy+SWk/dlFrYu9K5B2/TL
BNsi7a/bLtRhYuMOIrw6uLFNAN8Te4ta3QF7M0jyB00olp1/wt/RsgT9iXzBAELZ
4suTb3R4h5vXvde3428Xv0I3Atu2QEJM/buc+4Zel9ECgYEAjzX4TK3lLer+OuIM
aH8+aFO7LFsEMbyG/SZQ6TGj46+VBk1PCs4Z4wGYYdvJOF4iEXqA7KwCwHx+s6og
1EhZu6RbPghaDVRvvyrlusF0Bcl47zMgIJlNASQwRliMLCFl+VbPwI/YVbqOGu5v
B4lLKYfh8lGm8X7IxTPlmWGy1og=
-----END PRIVATE KEY-----
